$DATA1 SOURCE='HSPICE' VERSION='Q-2020.03 linux64' PARAM_COUNT=0
.TITLE '.title carry_lookahead addder implement by cmos logic'
 t1               t2               td               power           
 temper           alter#          
  5.150e-09        6.045e-09        8.955e-10        2.643e-04      
   25.0000        1               
